2024_grid_models/IEEE_118_Bus_modified.uct
##C 2007.05.01
Generated by Ewerszumrode on 2024-03-14
   This is a modified Version of the IEEE_118-Bus grid adapted from MATPOWER 7.1 [1,2]
   
   Further modifications include: 
   - Addition of lines to obtain a more meshed network structure 
   - Addition of double busbars and busbar couplers
   - Adaption of Line parameters: Current limits where adapted to provoke overloads (in n-1 case)
   
   The purpose of the modifications is to use the grid model to optimize redispatch and grid topology to avoid overloads. 
   In particular, a more meshed grid structure was created to enable the sensible adaptation of the grid topology.
   
   [1] R. D. Zimmerman, C. E. Murillo-Sanchez, and R. J. Thomas, 
   “MATPOWER: Steady-State Operations, Planning and Analysis Tools for Power Systems Research and Education,” 
   Power Systems, IEEE Transactions on, vol. 26, no. 1, pp. 12–19, Feb. 2011.
   [2] R. D. Zimmerman and C. E. Murillo-Sanchez. (2020). MATPOWER
   757 (Version 7.1). [Online]. Available: https://matpower.org
   
##N
##ZIEEE
001   5               0 0        27.0000 27.0000 -39.338 5.00000 .000000 -150.00 5.00000 -15.000
002   5               0 0        17.0000 9.00000
003   5               0 0        3.00000 10.0000
004   5               0 2 109.78 37.0000 12.0000 -86.338 220.344 .000000 -150.00 300.000 -300.00
005   5               0 0
005_2 5               0 0
006   5               0 0        9.00000 22.0000 -28.338 13.0000 .000000 -150.00 13.0000 -50.000
007   5               0 0        17.0000 2.00000
008   1               0 2 385.70                 -28.338 86.5663 .000000 -150.00 300.000 -300.00
009   1               0 0
010   1               0 0                        -28.338 147.000 .000000 -550.00 147.000 -200.00
011   5               0 0        20.0000 23.0000
011_2 5               0 0
012   5               0 2 108.90 18.0000 10.0000 -28.338 -12.849 .000000 -185.00 35.0000 -120.00
012_2 5               0 0
013   5               0 0        23.0000 16.0000
014   5               0 0        10.0000 1.00000
015   5               0 0        13.0000 30.0000 -60.338 10.0000 .000000 -200.00 10.0000 -30.000
015_2 5               0 0
016   5               0 0        30.0000 10.0000
017   5               0 0        6.00000 3.00000
017_2 5               0 0
018   5               0 0        12.0000 34.0000 -28.338 16.0000 .000000 -200.00 16.0000 -50.000
019   5               0 0        33.0000 25.0000
019_2 5               0 0                        -28.338 8.00000 .000000 -150.00 8.00000 -24.000
020   5               0 0        16.0000 3.00000
021   5               0 0        5.00000 8.00000
022   5               0 0        26.0000 5.00000
023   5               0 0
023_2 5               0 0        6.00000 3.00000
024   5               0 2 109.12                 -70.338 54.1869 .000000 -250.00 300.000 -300.00
024_2 5               0 0
025   5               0 0
025_2 5               0 0                        -28.338 -140.00 .000000 -480.00 47.0000 -140.00
026   1               0 2 385.70                 -28.338 152.378 .000000 -514.00 1000.00 -1000.0
027   5               0 2 106.48 1.00000 13.0000 -62.338 89.3274 .000000 -350.00 300.000 -300.00
027_2 5               0 0
028   5               0 0        42.0000 7.00000
029   5               0 0        26.0000 4.00000
030   1               0 0
031   5               0 2 106.37 6.00000 27.0000 -28.338 36.1998 .000000 -207.00 300.000 -300.00
031_2 5               0 0
032   5               0 0
032_2 5               0 0        14.0000 23.0000 -28.338 14.0000 .000000 -180.00 14.0000 -42.000
033   5               0 0        5.00000 9.00000
034   5               0 0        9.00000 26.0000
034_2 5               0 0                        -77.338 8.00000 .000000 -180.00 8.00000 -24.000
035   5               0 0        71.0000 9.00000
036   5               0 0        32.0000 17.0000 -28.338 8.00000 .000000 -200.00 8.00000 -24.000
037   5               0 0
037_2 5               0 0
038   1               0 0
039   5               0 0        28.0000 11.0000
040   5               0 0        30.0000 23.0000
040_2 5               0 2 106.70                 -99.338 69.5223 .000000 -180.00 300.000 -300.00
041   5               0 0        23.0000 23.0000
042   5               0 0        30.0000 7.00000
042_2 5               0 2 107.58                 -64.338 11.5964 .000000 -190.00
043   5               0 0        26.0000 10.0000
044   5               0 0        112.000 8.00000
045   5               0 0        19.0000 22.0000
046   5               0 2 110.55 28.0000 10.0000 -76.338 12.8865 .000000 -219.00 100.000 -100.00
047   5               0 0        15.0000 .000000
048   5               0 0        44.0000 11.0000
049   5               0 0        10.0000 30.0000 -28.338 -210.00 .000000 -454.00 85.0000 -210.00
049_2 5               0 0
050   5               0 0        108.000 4.00000
051   5               0 0        26.0000 8.00000
052   5               0 0        83.0000 5.00000
053   5               0 0        83.0000 11.0000
054   5               0 0        26.0000 32.0000
054_2 5               0 2 105.05                 -28.338 69.8262 .000000 -348.00 300.000 -300.00
055   5               0 0        23.0000 18.0000 -28.338 8.00000 .000000 -180.00 8.00000 -15.000
056   5               0 0                        -71.338 8.00000 .000000 -200.00 8.00000 -23.000
056_2 5               0 0        72.0000 22.0000
057   5               0 0        12.0000 3.00000
058   5               0 0        1.00000 3.00000
059   5               0 2 108.35 11.0000 113.000 -28.338 33.3682 .000000 -355.00 60.0000 -180.00
059_2 5               0 0
060   5               0 0        36.0000 3.00000
061   5               0 0        12.0000 .000000 -28.338 100.000 .000000 -260.00 100.000 -300.00
062   5               0 0        33.0000 14.0000
062_2 5               0 0                        -28.338 20.0000 .000000 -150.00 20.0000 -20.000
063   1               0 0
064   1               0 0
065   1               0 0                        -28.338 67.0000 .000000 -591.00 67.0000 -200.00
065_2 1               0 0
066   5               0 0        19.0000 18.0000
066_2 5               0 0                        -28.338 -200.00 .000000 -592.00 67.0000 -200.00
067   5               0 0        12.0000 7.00000
068   1               0 0
069   5               0 0                        -28.338 -300.00 .000000 -850.00 300.000 -300.00
069_2 5               0 0        19.0000 .000000
070   5               0 0                        -28.338 10.0000 .000000 -250.00 10.0000 -32.000
070_2 5               0 0        33.0000 20.0000
071   5               0 0
072   5               0 2 107.80                 -28.338 45.7045 .000000 -150.00 100.000 -100.00
073   5               0 2 109.01 95.0000 .000000 -98.338 26.7151 .000000 -250.00 100.000 -100.00
074   5               0 0        14.0000 27.0000 -71.338 6.00000 .000000 -180.00 6.00000 -9.0000
075   5               0 0        4.00000 11.0000
075_2 5               0 0
076   5               0 0        9.00000 36.0000 -85.338 8.00000 .000000 -180.00 8.00000 -23.000
077   5               0 0        20.0000 28.0000 -59.338 20.0000 .000000 -250.00 20.0000 -70.000
077_2 5               0 0
078   5               0 0        13.0000 26.0000
079   5               0 0        6.00000 32.0000
080   5               0 0        2.00000 26.0000 -28.338 -280.00 .000000 -577.00 165.000 -280.00
080_2 5               0 0
081   1               0 0
082   5               0 0
082_2 5               0 0        5.00000 27.0000
083   5               0 0        6.00000 10.0000
083_2 5               0 0
084   5               0 0        14.0000 7.00000
085   5               0 0        28.0000 15.0000
085_2 5               0 0                        -28.338 8.00000 .000000 -280.00 8.00000 -23.000
086   5               0 0        14.0000 10.0000
087   5               0 2 111.65                 -28.338 -.58964 .000000 -204.00 100.000 -1000.0
088   5               0 0        2.00000 10.0000
089   5               0 2 110.55                 -36.338 -37.471 .000000 -857.00 210.000 -300.00
089_2 5               0 0        6.00000 .000000
090   5               0 2 108.35 31.0000 42.0000 -65.338 4.76674 .000000 -200.00 300.000 -300.00
091   5               0 2 107.80                 -60.338 59.1566 .000000 -200.00 100.000 -100.00
092   5               0 0        25.0000 10.0000 -93.338 3.00000 .000000 -200.00 3.00000 -9.0000
092_2 5               0 0
093   5               0 0        1.00000 7.00000
094   5               0 0        33.0000 16.0000
094_2 5               0 0
095   5               0 0        36.0000 31.0000
096   5               0 0        69.0000 15.0000
097   5               0 0        29.0000 9.00000
098   5               0 0        123.000 8.00000
099   5               0 2 111.10                 -87.338 34.9179 .000000 -150.00 100.000 -100.00
100   5               0 2 111.87 22.0000 18.0000 -28.338 -73.260 .000000 -452.00 50.0000 -155.00
100_2 5               0 0
101   5               0 0        6.00000 3.00000
102   5               0 0        5.00000 15.0000
103   5               0 0                        -67.338 -40.000 .000000 -140.00 15.0000 -40.000
103_2 5               0 0        15.0000 16.0000
104   5               0 2 106.81 35.0000 25.0000 -28.338 -11.279 .000000 -130.00 8.00000 -23.000
105   5               0 0                        -28.338 8.00000 .000000 -130.00 8.00000 -23.000
105_2 5               0 0        7.00000 26.0000
106   5               0 0        8.00000 16.0000
107   5               0 2 104.72 17.0000 12.0000 -28.338 21.1612 .000000 -150.00 200.000 -200.00
108   5               0 0        6.00000 1.00000
109   5               0 0        13.0000 3.00000
110   5               0 0        64.0000 30.0000 -69.338 8.00000 .000000 -150.00 8.00000 -23.000
111   5               0 2 107.80                 -59.338 .682208 .000000 -136.00 100.000 -1000.0
112   5               0 2 107.25 24.0000 13.0000 -65.338 2.79924 .000000 -100.00 100.000 -1000.0
113   5               0 2 109.23                 -28.338 79.9050 .000000 -100.00 100.000 -200.00
114   5               0 0        8.00000 3.00000
115   5               0 0        2.00000 7.00000
116   1               0 3 385.90 36.0000 .000000 -28.338 606.685 .000000 -100.00 1000.00 -1000.0
117   5               0 0        60.0000 8.00000
118   5               0 0        30.0000 15.0000
##L
001   5  002   5  1 0 3.6663 12.088 209.9181    520
001   5  002   5  2 0 3.6663 12.088 209.9181    520
001   5  003   5  1 0 1.5609 5.1304 89.42230    520
001   5  003   5  2 0 1.5609 5.1304 89.42230    520
002   5  012   5  1 0 2.2627 7.4536 129.9174   1040
002   5  012_2 5  1 0 2.2627 7.4536 129.9174   1040
003   5  005   5  1 0 2.9161 13.068 234.7115   1040
003   5  005_2 5  1 0 2.9161 13.068 234.7115   1040
003   5  012_2 5  1 0 5.8564 19.360 335.5378    520
004   5  005   5  1 0 .21296 .96558 17.35416    940
004   5  005_2 5  1 0 .21296 .96558 17.35416    940
004   5  011   5  1 0 2.5289 8.3248 144.4630    500
004   5  011_2 5  1 0 2.5289 8.3248 144.4630    500
005   5  005_2 5  1 2 .00000 .00000 .0000000
005   5  006   5  1 0 1.4399 6.5340 117.8506   1040
005   5  011_2 5  1 0 2.4563 8.2522 143.6368   1040
005_2 5  011   5  1 0 2.4563 8.2522 143.6368   1040
006   5  007   5  1 0 .55539 2.5168 45.45571    520
006   5  007   5  2 0 .55539 2.5168 45.45571    520
007   5  012_2 5  1 0 1.0430 4.1140 72.23150   1040
008   1  009   1  1 0 3.4656 44.042 804.7096   3460
008   1  009   1  2 0 3.5234 44.042 804.7096   3460
008   1  030   1  1 0 6.2236 72.778 355.9550   3460
008   1  030   1  2 0 6.2236 72.776 355.9550   3460
009   1  010   1  1 0 3.7255 46.497 851.8021   3460
009   1  010   1  2 0 3.7544 46.497 851.8021   3460
011   5  011_2 5  1 2 .00000 .00000 .0000000
011   5  012_2 5  1 0 .71995 2.3716 41.48788    800
011   5  013   5  1 0 2.6922 8.8451 155.0408   1040
011_2 5  012_2 5  1 0 .71995 2.3716 41.48788    800
011_2 5  013   5  1 0 2.6922 8.8451 155.0408   1040
012   5  012_2 5  1 7 .00000 .00000 .0000000
012   5  014   5  1 0 2.6015 8.5547 150.0833    520
012   5  016   5  1 0 2.5652 10.091 176.8591    520
012   5  117   5  1 0 3.9809 16.940 295.8689   2520
012_2 5  014   5  1 0 2.6015 8.5547 150.0833    520
012_2 5  016   5  1 0 2.5652 10.091 176.8591    520
012_2 5  117   5  1 0 3.9809 16.940 295.8689   2520
013   5  015_2 5  1 0 9.0024 29.572 518.0173    500
014   5  015   5  1 0 7.1995 23.595 414.8756    520
015   5  015_2 5  1 2 .00000 .00000 .0000000
015   5  017   5  1 0 1.5972 5.2877 366.9412    700
015   5  019   5  1 0 1.4520 4.7674 83.47212   1040
015   5  033   5  1 0 4.5980 15.052 263.9661   1040
015_2 5  017_2 5  1 0 1.5972 5.2877 366.9412    700
015_2 5  019_2 5  1 0 1.4520 4.7674 83.47212   1040
015_2 5  033   5  1 0 4.5980 15.052 263.9661   1040
016   5  017   5  1 0 5.4934 21.792 385.1247    520
016   5  017   5  2 0 5.4934 21.792 385.1247    520
017   5  017_2 5  1 2 .00000 .00000 .0000000
017   5  031_2 5  1 0 5.7354 18.912 329.7510    500
017   5  113   5  1 0 1.1047 3.6421 63.46960    700
017   5  113   5  2 0 1.1047 3.6421 63.46960    700
017_2 5  018   5  1 0 1.4883 6.1105 107.2728   1040
017_2 5  031   5  1 0 5.7354 18.912 329.7510    500
018   5  019   5  1 0 1.3540 5.9653 94.37973   1040
018   5  019_2 5  1 0 1.3540 5.9653 94.37973   1040
019   5  019_2 5  1 2 .00000 .00000 .0000000
019   5  020   5  1 0 3.0492 14.157 246.2820    500
019   5  034   5  1 0 9.0992 29.887 522.3150    520
019_2 5  020   5  1 0 3.0492 14.157 246.2820    500
019_2 5  034_2 5  1 0 9.0992 29.887 522.3150    520
020   5  021   5  1 0 2.2143 10.273 178.5116   1040
020   5  021   5  2 0 2.2143 10.273 178.5116   1040
021   5  022   5  1 0 2.5289 11.737 203.3050    800
021   5  022   5  2 0 2.5289 11.737 203.3050    800
022   5  023   5  1 0 4.1382 19.239 333.8854   1040
022   5  023_2 5  1 0 4.1382 19.239 333.8854   1040
023   5  023_2 5  1 7 .00000 .00000 .0000000
023   5  024   5  1 0 1.6335 5.9532 411.5707    800
023   5  024   5  2 0 1.6335 5.9532 411.5707    800
023   5  025   5  1 0 1.8876 9.6800 714.0495    500
023   5  025   5  2 0 1.8876 9.6800 714.0495    500
023   5  032_2 5  1 0 3.8357 13.951 969.4233    520
023_2 5  024   5  1 0 1.6335 5.9532 411.5707    800
023_2 5  032   5  1 0 3.8357 13.951 969.4233    520
024   5  070   5  1 0 .26741 49.791 842.8108    840
024   5  070_2 5  1 0 .26410 49.792 842.8108    840
024   5  072   5  1 0 5.9048 23.716 403.3051    300
024   5  072   5  2 0 5.9048 23.716 403.3051    300
025   5  025_2 5  1 2 .00000 .00000 .0000000
025   5  027_2 5  1 0 3.8478 19.723 1457.853    500
025_2 5  027   5  1 0 3.8478 19.723 1457.853    500
026   1  030   1  1 0 11.538 124.18 628.8087   3460
026   1  030   1  2 0 11.538 124.18 628.8087   3460
027   5  027_2 5  1 2 .00000 .00000 .0000000
027   5  028   5  1 0 2.3147 10.345 178.5116    900
027   5  032   5  1 0 2.7709 9.1355 159.1751    540
027   5  115   5  1 0 1.9844 8.9661 162.9764    520
027_2 5  028   5  1 0 2.3147 10.345 178.5116    900
027_2 5  032_2 5  1 0 2.7709 9.1355 159.1751    540
027_2 5  115   5  1 0 1.9844 8.9661 162.9764    520
028   5  029   5  1 0 2.8677 11.410 196.6951    520
028   5  029   5  2 0 2.8677 11.410 196.6951    520
029   5  031   5  1 0 1.3068 4.0051 68.59668    520
029   5  031_2 5  1 0 1.3068 4.0051 68.59668    520
030   1  038   1  1 0 6.7002 77.976 292.2435   3460
030   1  038   1  2 0 6.7002 77.976 292.2435   3460
031   5  031_2 5  1 2 .00000 .00000 .0000000
031   5  032_2 5  1 0 3.6058 11.919 207.4394    320
031_2 5  032   5  1 0 3.6058 11.919 207.4394    320
032   5  032_2 5  1 2 .00000 .00000 .0000000
032   5  113   5  1 0 7.4415 24.563 428.0986    500
032   5  113   5  2 0 7.4415 24.563 428.0986    500
032   5  114   5  1 0 1.6335 7.4052 134.5450    520
032_2 5  114   5  1 0 1.6335 7.4052 134.5450    520
033   5  037   5  1 0 5.0215 17.182 302.4788   1040
033   5  037_2 5  1 0 5.0215 17.182 302.4788   1040
034   5  034_2 5  1 2 .00000 .00000 .0000000
034   5  036   5  1 0 1.0539 3.2428 46.94168   1040
034   5  037   5  1 0 .30976 1.1374 81.32327    600
034   5  037   5  2 0 .30976 1.1374 81.32327    600
034   5  043   5  1 0 4.9973 20.340 349.2572    820
034_2 5  036   5  1 0 1.0539 3.2428 46.94168   1040
034_2 5  037_2 5  1 0 .31460 1.1374 81.32327    600
034_2 5  043   5  1 0 4.9973 20.340 349.2572    820
035   5  036   5  1 0 .27104 1.2342 22.14823   1040
035   5  036   5  2 0 .27104 1.2342 22.14823   1040
035   5  037   5  1 0 1.3310 6.0137 108.9253   1040
035   5  037   5  2 0 1.3310 6.0137 108.9253   1040
037   5  037_2 5  1 2 .00000 .00000 .0000000
037   5  040_2 5  1 0 7.1753 20.328 347.1083    520
037_2 5  039   5  1 0 3.8841 12.826 223.1411   1040
037_2 5  040   5  1 0 7.1753 20.328 347.1083    520
038   1  065   1  1 0 13.010 142.38 724.3791   3460
038   1  065_2 1  1 0 13.010 142.38 724.3791   3460
039   5  040   5  1 0 2.2264 7.3205 128.2650    520
039   5  040_2 5  1 0 2.2264 7.3205 128.2650    520
040   5  040_2 5  1 2 .00000 .00000 .0000000
040   5  041   5  1 0 1.7545 5.8927 100.9928    520
040   5  042   5  1 0 6.7155 22.143 385.1247    320
040_2 5  042_2 5  1 0 6.7155 22.143 385.1247    320
041   5  042   5  1 0 4.9610 16.335 284.2985    520
041   5  042_2 5  1 0 4.9610 16.335 284.2985    520
042   5  042_2 5  1 2 .00000 .00000 .0000000
042   5  049_2 5  1 0 8.6515 39.083 710.7446    520
042_2 5  049   5  1 0 8.6515 39.083 710.7446    520
043   5  044   5  1 0 7.3568 29.693 501.4893    520
043   5  044   5  2 0 7.3568 29.693 501.4893    520
044   5  045   5  1 0 2.7104 10.902 185.1246    720
044   5  045   5  2 0 2.7104 10.902 185.1246    720
045   5  046   5  1 0 4.8400 16.408 274.3804    520
045   5  046   5  2 0 4.8400 16.498 274.3804    520
045   5  049   5  1 0 8.2764 22.506 366.9412   1040
046   5  047   5  1 0 4.5980 15.367 261.1575   1040
046   5  047   5  2 0 4.5980 15.367 261.1575   1040
046   5  048   5  1 0 7.2721 22.869 390.0822    820
046   5  048   5  2 0 7.2721 22.869 390.0822    820
047   5  049_2 5  1 0 2.3111 7.5625 132.5627   1040
047   5  049_2 5  2 0 2.3111 7.5625 132.5627   1040
047   5  069   5  1 0 10.212 33.614 586.1176   1040
047   5  069   5  2 0 10.212 33.614 586.1176   1040
048   5  049   5  1 0 2.1659 6.1105 103.9679   1540
048   5  049_2 5  1 0 2.1659 6.1105 103.9679   1540
049   5  049_2 5  1 2 .00000 .00000 .0000000
049   5  050   5  1 0 3.2307 9.0992 154.8774   1040
049   5  051   5  1 0 5.8806 16.577 282.6460    840
049   5  051   5  2 0 5.8806 16.577 282.6460    840
049   5  054   5  1 0 10.515 35.211 603.3052    520
049   5  066_2 5  1 0 2.1780 11.120 204.9575   1560
049_2 5  050   5  1 0 3.2307 9.0992 154.8774   1040
049_2 5  054_2 5  1 0 10.515 35.211 603.3052    520
049_2 5  066   5  1 0 2.1780 11.120 204.9575   1560
049_2 5  069   5  1 0 11.918 39.204 684.2986   1040
050   5  057   5  1 0 5.7354 16.214 274.3804    740
050   5  057   5  2 0 5.7354 16.214 274.3804    740
051   5  052   5  1 0 2.4563 7.1148 115.3719    920
051   5  052   5  2 0 2.4563 7.1148 115.3719    920
051   5  058   5  1 0 3.0855 8.6999 147.7680    520
051   5  058   5  2 0 3.0855 8.6999 147.7680    520
052   5  053   5  1 0 4.9005 19.783 335.3713    700
052   5  053   5  2 0 4.9005 19.783 335.3713    700
053   5  054   5  1 0 3.1823 14.762 256.2000   1520
053   5  054_2 5  1 0 3.1823 14.762 256.2000   1520
054   5  054_2 5  1 2 .00000 .00000 .0000000
054   5  056   5  1 0 .33275 1.1556 60.49451   1240
054   5  059_2 5  1 0 6.0863 27.745 494.2165    320
054_2 5  055   5  1 0 2.0449 8.5547 166.9411    820
054_2 5  056_2 5  1 0 .33275 1.1556 60.49451   1240
054_2 5  059   5  1 0 6.0863 27.745 494.2165    320
055   5  056   5  1 0 .59048 1.8271 30.91013    720
055   5  056_2 5  1 0 .59048 1.8271 30.91013    720
055   5  059   5  1 0 5.7342 26.112 466.6114    520
056   5  056_2 5  1 2 .00000 .00000 .0000000
056   5  058   5  1 0 4.1503 11.689 200.0001   1200
056   5  059   5  1 0 9.7163 28.919 442.9740    500
056   5  059_2 5  1 0 9.9825 30.371 470.2493    500
056_2 5  057   5  1 0 4.1503 11.689 200.0001    740
056_2 5  057   5  2 0 4.1503 11.689 200.0001    740
056_2 5  058   5  1 0 4.1503 11.689 200.0001   1200
059   5  059_2 5  1 2 .00000 .00000 .0000000
059   5  060   5  1 0 3.8357 17.545 310.7444   1040
059_2 5  061   5  1 0 3.9688 18.150 320.6624   1040
060   5  061   5  1 0 .31944 1.6335 120.3293   1040
060   5  062_2 5  1 0 1.4883 6.7881 121.3220   1040
061   5  062   5  1 0 .99704 4.5496 80.99341   1040
062   5  062_2 5  1 2 .00000 .00000 .0000000
062   5  066   5  1 0 5.8322 26.378 477.6855   1040
062   5  067   5  1 0 3.1218 14.157 256.2000    520
062_2 5  066_2 5  1 0 5.8322 26.378 477.6855   1040
062_2 5  067   5  1 0 3.1218 14.157 256.2000    520
063   1  064   1  1 0 2.4837 28.880 149.5838   3460
063   1  064   1  2 0 2.4837 28.880 149.5838   3460
064   1  065   1  1 0 3.8844 43.609 263.1587   3460
064   1  065_2 1  1 0 3.8844 43.609 263.1587   3460
065   1  065_2 1  1 2 .00000 .00000 .0000000
065   1  068   1  1 0 1.9927 23.104 441.8273   3460
065_2 1  068   1  1 0 1.9927 23.104 441.8273   3460
066   5  066_2 5  1 7 .00000 .00000 .0000000
066   5  067   5  1 0 2.7104 12.282 221.6519   1040
066   5  067   5  2 0 2.7104 12.282 221.6519   1040
068   1  081   1  1 0 2.5270 29.169 559.5585   3460
068   1  081   1  2 0 2.5270 29.169 559.5585   3460
068   1  116   1  1 0 .49096 5.8482 113.5749   3460
068   1  116   1  2 0 .49096 5.8482 113.5749   3460
068   1  116   1  3 0 .49096 5.8482 113.5749   3460
069   5  069_2 5  1 2 .00000 .00000 .0000000
069   5  070   5  1 0 3.6300 15.367 1008.266    900
069   5  075   5  1 0 4.9005 14.762 1024.794    900
069   5  077   5  1 0 3.7389 12.221 857.8528    320
069   5  077_2 5  1 0 3.7389 12.221 857.8528    320
069_2 5  070_2 5  1 0 3.6300 15.367 1008.266    900
069_2 5  075   5  1 0 4.9005 14.762 1024.794    900
070   5  070_2 5  1 2 .00000 .00000 .0000000
070   5  071   5  1 0 1.0672 4.2955 72.56137    540
070   5  075   5  1 0 5.1788 17.061 297.5214    520
070_2 5  071   5  1 0 1.0672 4.2955 72.56137    540
070_2 5  074   5  1 0 4.8521 16.008 278.3483    520
071   5  072   5  1 0 5.3966 21.780 367.2742    400
071   5  072   5  2 0 5.3966 21.780 367.2742    400
071   5  073   5  1 0 1.0479 5.4934 97.35482   2040
071   5  073   5  2 0 1.0479 5.4934 97.35482   2040
074   5  075   5  1 0 1.4883 4.9126 85.45447    800
074   5  075   5  2 0 1.4883 4.9126 85.45447    800
075   5  077   5  1 0 7.2721 24.188 411.4042    320
075   5  077_2 5  1 0 7.2721 24.188 411.4042    320
075   5  118   5  1 0 1.7545 5.8201 99.00730    740
075   5  118   5  2 0 1.7545 5.8201 99.00730    740
076   5  077   5  1 0 5.3724 17.908 304.1313    450
076   5  077   5  2 0 5.3724 17.908 304.1313    450
076   5  118   5  1 0 1.9844 6.5824 112.0669    520
076   5  118   5  2 0 1.9844 6.5824 112.0669    520
077   5  077_2 5  1 2 .00000 .00000 .0000000
077   5  078   5  1 0 .45496 1.5004 104.4642   1040
077   5  080   5  1 0 3.5574 12.705 188.4296   1040
077   5  082   5  1 0 3.6058 10.321 675.5367   1560
077_2 5  078   5  1 0 .45496 1.5004 104.4642   1040
077_2 5  080_2 5  1 0 3.5574 12.705 188.4296   1040
077_2 5  082_2 5  1 0 3.6058 10.321 675.5367   1560
078   5  079   5  1 0 .66066 2.9524 53.55473    520
078   5  079   5  2 0 .66066 2.9524 53.55473    520
079   5  080_2 5  1 0 1.8876 8.5184 154.5444   1040
079   5  080_2 5  2 0 1.8876 8.5184 154.5444   1040
080   5  080_2 5  1 2 .00000 .00000 .0000000
080   5  096   5  1 0 4.3076 22.022 408.2657    900
080   5  098   5  1 0 2.8798 13.068 236.3640   1040
080   5  098   5  2 0 2.8798 13.068 236.3640   1040
080   5  099   5  1 0 5.4934 24.926 451.2396    500
080_2 5  097   5  1 0 2.2143 11.301 209.9181    900
080_2 5  099   5  1 0 5.4934 24.926 451.2396    500
082   5  082_2 5  1 2 .00000 .00000 .0000000
082   5  083   5  1 0 1.3552 4.4346 313.7195   1560
082   5  096   5  1 0 1.9602 6.4130 449.5871    900
082_2 5  083   5  1 0 1.3552 4.4286 313.7195   1560
082_2 5  096   5  1 0 1.9602 6.4130 449.5871    900
083   5  084   5  1 0 7.5625 15.972 213.2231   1040
083   5  084   5  2 0 7.5625 15.972 213.2231   1040
083   5  085_2 5  1 0 5.2030 17.908 287.6034   1040
084   5  085   5  1 0 3.6542 7.7561 101.9824   1040
084   5  085   5  2 0 3.6542 7.7465 101.9824   1040
085   5  085_2 5  1 2 .00000 .00000 .0000000
085   5  086   5  1 0 4.2350 14.883 228.0985    950
085   5  088   5  1 0 2.4200 12.342 228.0985    520
085   5  088   5  2 0 2.4200 12.342 228.0985    520
085   5  089_2 5  1 0 2.8919 20.933 388.4297    320
085_2 5  086   5  1 0 4.2350 14.883 228.0985    950
085_2 5  089   5  1 0 2.8919 20.933 388.4297    320
086   5  087   5  1 0 3.4219 25.095 367.7674   1040
086   5  087   5  2 0 3.4219 25.095 367.7674   1040
088   5  089   5  1 0 1.6819 8.6152 159.8348   1040
088   5  089_2 5  1 0 1.6819 8.6152 159.8348   1040
089   5  089_2 5  1 2 .00000 .00000 .0000000
089   5  090   5  1 0 2.8798 12.064 876.0332    500
089   5  092   5  1 0 4.7553 19.130 342.1477    320
089_2 5  090   5  1 0 2.8798 12.064 876.0332    500
089_2 5  092_2 5  1 0 4.7553 19.130 342.1477    320
090   5  091   5  1 0 3.0734 10.116 176.8591    320
090   5  091   5  2 0 3.0734 10.116 176.8591    320
091   5  092   5  1 0 4.6827 15.391 270.0827    500
091   5  092_2 5  1 0 4.6827 15.391 270.0827    500
092   5  092_2 5  1 2 .00000 .00000 .0000000
092   5  093   5  1 0 3.1218 10.261 180.1641   1040
092   5  094   5  1 0 5.8201 19.118 335.5378   1040
092   5  100   5  1 0 7.8408 35.695 390.0822   1040
092   5  102   5  1 0 1.4883 6.7639 120.9922    520
092_2 5  093   5  1 0 3.1218 10.261 180.1641   1040
092_2 5  094_2 5  1 0 5.8201 19.118 335.5378   1040
092_2 5  100_2 5  1 0 7.8408 35.695 390.0822   1040
092_2 5  102   5  1 0 1.4883 6.7639 120.9922    520
093   5  094   5  1 0 2.6983 8.8572 155.0408   1040
094   5  094_2 5  1 2 .00000 .00000 .0000000
094   5  095   5  1 0 1.5972 5.2514 91.73451   1040
094   5  096   5  1 0 3.2549 10.515 190.0821   1040
094   5  100   5  1 0 2.1538 7.0180 499.1740   1040
094_2 5  095   5  1 0 1.5972 5.2514 91.73451   1040
094_2 5  096   5  1 0 3.2549 10.515 190.0821   1040
094_2 5  100_2 5  1 0 2.1538 7.0180 499.1740   1560
095   5  096   5  1 0 2.0691 6.6187 121.8184   1040
096   5  097   5  1 0 2.0933 10.708 198.3476    900
098   5  100   5  1 0 4.8037 21.659 393.3871   1040
098   5  100   5  2 0 4.8037 21.659 393.3871   1040
099   5  100   5  1 0 2.1780 9.8373 178.5116    800
099   5  100_2 5  1 0 2.1780 9.8373 178.5116    800
100   5  100_2 5  1 7 .00000 .00000 .0000000
100   5  101   5  1 0 3.3517 15.270 271.0755   1040
100_2 5  103   5  1 0 1.9360 6.3525 442.9740   1560
100_2 5  103   5  2 0 1.9360 6.3525 442.9740   1040
100_2 5  104   5  1 0 5.4571 24.684 447.1084   1040
100_2 5  106   5  1 0 7.3205 27.709 512.3969   1040
101   5  102   5  1 0 2.9766 13.552 242.9739    520
103   5  103_2 5  1 2 .00000 .00000 .0000000
103   5  104   5  1 0 5.6386 19.166 336.3641   1040
103   5  105   5  1 0 6.4735 19.663 337.1903    520
103_2 5  105_2 5  1 0 6.4735 19.663 337.1903    520
103_2 5  110   5  1 0 .56822 21.937 380.9904    320
103_2 5  110   5  2 0 4.7263 21.937 380.9904    320
104   5  105   5  1 0 1.2027 4.5738 81.48664   1040
104   5  105_2 5  1 0 1.2027 4.5738 81.48664   1040
105   5  105_2 5  1 2 .00000 .00000 .0000000
105   5  106   5  1 0 1.6940 6.6187 118.5135   1040
105   5  107   5  1 0 6.4130 22.143 390.0822   1040
105   5  108   5  1 0 3.1581 8.5063 152.3955    500
105_2 5  107   5  1 0 6.4130 22.143 390.0822   1040
105_2 5  108   5  1 0 3.1581 8.5063 152.3955    500
106   5  107   5  1 0 6.4130 22.143 390.0822   1040
108   5  109   5  1 0 1.2705 3.4848 62.80987    500
108   5  109   5  2 0 1.2705 3.4848 62.80987    500
109   5  110   5  1 0 3.3638 9.2202 166.9411    520
109   5  110   5  2 0 3.3638 9.2202 166.9411    520
110   5  111   5  1 0 2.6620 9.1355 165.2886    900
110   5  111   5  2 0 2.6620 9.1355 165.2886    900
110   5  112   5  1 0 2.9887 7.7440 512.3969   1040
110   5  112   5  2 0 2.9887 7.7440 512.3969   1040
114   5  115   5  1 0 .27830 1.2584 22.81111    520
##T
005_2 5  008   1  1 0 110.0 380.0 1000. .00000 .60500 .0000000 .00000   5249
008   1  005   5  1 0 380.0 110.0 1000. .00000 7.2200 .0000000 .00000   1519
017   5  030   1  1 0 110.0 380.0 1000. .00000 .60500 .0000000 .00000   5249
025_2 5  026   1  1 0 110.0 380.0 1000. .00000 .60500 .0000000 .00000   5249
026   1  025   5  1 0 380.0 110.0 1000. .00000 7.2200 .0000000 .00000   1519
030   1  017_2 5  1 0 380.0 110.0 1000. .00000 7.2200 .0000000 .00000   1519
037   5  038   1  1 0 110.0 380.0 1000. .00000 .60500 .0000000 .00000   5249
038   1  037_2 5  1 0 380.0 110.0 1000. .00000 7.2200 .0000000 .00000   1519
059_2 5  063   1  1 0 110.0 380.0 1000. .00000 .60500 .0000000 .00000   5249
061   5  064   1  1 0 110.0 380.0 1000. .00000 .60500 .0000000 .00000   5249
063   1  059_2 5  2 0 380.0 110.0 1000. .00000 7.2200 .0000000 .00000   1519
065   1  066   5  1 0 380.0 110.0 1000. .00000 7.2200 .0000000 .00000   1519
065_2 1  066_2 5  1 0 380.0 110.0 1000. .00000 7.2200 .0000000 .00000   1519
068   1  069   5  1 0 380.0 110.0 1000. .00000 7.2200 .0000000 .00000   1519
068   1  069_2 5  1 0 380.0 110.0 1000. .00000 7.2200 .0000000 .00000   1519
080   5  081   1  2 0 110.0 380.0 1000. .00000 .60500 .0000000 .00000   5249
081   1  080   5  1 0 380.0 110.0 1000. .00000 7.2200 .0000000 .00000   1519
##R
005_2 5  008   1  1
008   1  005   5  1
017   5  030   1  1
025_2 5  026   1  1
026   1  025   5  1
030   1  017_2 5  1
037   5  038   1  1
038   1  037_2 5  1
059_2 5  063   1  1
061   5  064   1  1
063   1  059_2 5  2
065   1  066   5  1
065_2 1  066_2 5  1
068   1  069   5  1
068   1  069_2 5  1
080   5  081   1  2
081   1  080   5  1
